9
2-Propenoic_acid
C                       2.69903       2.33705       0.22079
C                       1.82412       1.14599       0.36856
O                       0.52580       1.46742       0.19629
O                       2.19289       0.02688       0.60998
C                       4.01834       2.21986       0.35653
H                       2.21783       3.27874       0.00287
H                       0.03118       0.64724       0.30727
H                       4.67261       3.07311       0.25301
H                       4.45831       1.25681       0.57491
