8
Acrolein
C                       0.84073       1.19034       1.60547
C                       1.76641       2.22305       1.09372
C                       2.86126       2.55128       1.78207
O                       -0.16686      0.84213       1.03850
H                       1.13723       0.74166       2.57076
H                       1.51021       2.68625       0.15061
H                       3.55683       3.30018       1.43239
H                       3.08650       2.06855       2.72511
