 42   
  
 H -1.715169287478979E-002   2.61585931164403      -0.131383564249930
 H  0.128571157631902        4.19397751110900       1.778722427504227E-002
 H  0.913305539519101        1.57454803378533        2.51004020695557
 H  1.13560688707796        1.96187638132170       0.776882052963150
 H -1.09245592181963        1.89333167637198       0.226388651138258
 H  2.27588470331936        1.29370597622620      -0.131505106046084
 H  3.56725206055633        2.22212605890291       2.243396127355972E-002
 H  2.27542648216630       -1.29438599496423      -0.130956190101622
 H  3.57368319572567       -2.20774191943682       1.765365623881319E-002
 H  0.905838335729810       -1.57743933946351        2.50931535236895
 H  1.13187042797351       -1.96410561950720       0.775076132826940
 H  2.18848492483136      -3.711642281577490E-004  0.225848516017867
 H -1.825610735797229E-002  -2.61547592480152      -0.131454758999098
 H  0.139511187437137       -4.19689357216167       2.275791584343891E-002
 H -2.25899174314945       -1.32395501318412      -0.131383617467004
 H -3.69915335682958       -1.98510576101025       1.725183661991115E-002
 H -1.82164527608345       3.395035906592516E-003   2.51499933181516
 H -2.27139221739797       4.025396194479919E-003  0.778017632909685
 H -1.09440676024583       -1.89396513909133       0.227685375477186
 H -2.25838804674199        1.32412748633318      -0.131511093415029
 H -3.70904030695153        1.97519923085719       2.361510856147513E-002
 H -1.715169287478979E-002   2.61585931164403      -0.131383564249930
 H  0.128571157631902        4.19397751110900       1.778722427504227E-002
 H  0.913305539519101        1.57454803378533        2.51004020695557
 H  1.13560688707796        1.96187638132170       0.776882052963150
 H -1.09245592181963        1.89333167637198       0.226388651138258
 H  2.27588470331936        1.29370597622620      -0.131505106046084
 H  3.56725206055633        2.22212605890291       2.243396127355972E-002
 H  2.27542648216630       -1.29438599496423      -0.130956190101622
 H  3.57368319572567       -2.20774191943682       1.765365623881319E-002
 H  0.905838335729810       -1.57743933946351        2.50931535236895
 H  1.13187042797351       -1.96410561950720       0.775076132826940
 H  2.18848492483136      -3.711642281577490E-004  0.225848516017867
 H -1.825610735797229E-002  -2.61547592480152      -0.131454758999098
 H  0.139511187437137       -4.19689357216167       2.275791584343891E-002
 H -2.25899174314945       -1.32395501318412      -0.131383617467004
 H -3.69915335682958       -1.98510576101025       1.725183661991115E-002
 H -1.82164527608345       3.395035906592516E-003   2.51499933181516
 H -2.27139221739797       4.025396194479919E-003  0.778017632909685
 H -1.09440676024583       -1.89396513909133       0.227685375477186
 H -2.25838804674199        1.32412748633318      -0.131511093415029
 H -3.70904030695153        1.97519923085719       2.361510856147513E-002
  
