5
CCl2F2
C                       -0.00000      -0.00000      0.33749
F                        0.00000       1.07213       1.11683
F                        0.00000       -1.07213      1.11683
Cl                       1.45735       0.00000       -0.65392
Cl                       -1.45735      0.00000       -0.65392
