6
CH2CF2
C                       0.00000       0.00000       1.38111
C                       0.00000       0.00000       0.06276
H                       0.00000       0.93584       1.91099
H                       0.00000       -0.93584      1.91099
F                        0.00000       1.07545       -0.69313
F                        0.00000       -1.07545      -0.69313
