9
CH3CH2OH
C                       1.16433       -0.37302      0.00000
C                       -0.02683      0.56077       0.00000
O                       -1.20159      -0.23777      0.00000
H                       -1.95934      0.34707       -0.00000
H                       2.09539       0.19416       -0.00000
H                       1.14416       -1.01016      0.88336
H                       1.14416       -1.01016      -0.88336
H                       0.00356       1.20550       0.88407
H                       0.00356       1.20550       -0.88407
