7
CH3CClO
C                       0.01295       0.52837       -0.00000
C                       1.50252       0.70710       0.00000
O                       -0.81415      1.37414       -0.00000
Cl                       -0.45475      -1.20508      0.00000
H                       1.73506       1.76806       0.00000
H                       1.92279       0.22271       0.87937
H                       1.92279       0.22271       -0.87937
