11
CH3CH2CH3
C                       -0.00003      0.59393       0.00006
C                       -1.26688      -0.25697      0.00002
C                       1.26685       -0.25690      -0.00002
H                       -0.00004      1.24847       0.87465
H                       -0.00006      1.24859       -0.87443
H                       -2.16583      0.36012       0.00003
H                       2.16577       0.36023       -0.00003
H                       -1.30225      -0.90088      0.88087
H                       -1.30222      -0.90083      -0.88086
H                       1.30221       -0.90075      -0.88091
H                       1.30227       -0.90082      0.88082
