8
CH3CH2Cl
C                       1.59537       -0.35807      0.00059
C                       0.47312       0.65936       0.00229
H                       2.55707       0.15781       0.00323
H                       1.54324       -0.98968      -0.88456
H                       1.54115       -0.99484      0.88190
Cl                       -1.13237      -0.14858      -0.00293
H                       0.50079       1.29261       -0.87949
H                       0.49793       1.28670       0.88837
