9
CH3CONH2
C                       1.60650       2.53716       0.78785
C                       1.89415       1.05540       0.90201
N                       1.80424       0.53640       2.15903
O                       2.18919       0.37917       -0.06095
H                       2.42682       3.00740       0.25072
H                       0.70254       2.66844       0.19533
H                       1.47661       3.02740       1.75088
H                       1.91878       -0.45321      2.27081
H                       1.47856       1.08119       2.93088
