7
CH3CCH
C                       0.38174       0.84388       0.59044
C                       1.84642       0.84457       0.60927
C                       3.05076       0.84512       0.62475
H                       0.00399       1.76607       0.15096
H                       0.00671       0.00615       0.00406
H                       -0.01418      0.75887       1.60153
H                       4.11168       0.84563       0.63839
