6
CH3CN
C                       0.40788       0.89538       0.51958
C                       1.87107       0.94253       0.48952
N                       3.02470       0.97972       0.46582
H                       -0.00008      1.77587       0.02860
H                       0.05646       0.00515       0.00310
H                       0.06038       0.86944       1.54979
