6
CH3NC
C                       0.88864       0.06060       -0.02140
N                       2.05735       0.06060       -0.02139
C                       3.48138       0.06060       -0.02138
H                       3.84465       0.62707       -0.87492
H                       3.84464       -0.96183      -0.08518
H                       3.84463       0.51656       0.89598
