7
Cyclopropene
C                       -0.00000      0.00000       0.86153
C                       0.00000       0.64700       -0.50098
C                       -0.00000      -0.64700      -0.50098
H                       0.00000       1.57574       -1.03842
H                       -0.00000      -1.57574      -1.03842
H                       0.91124       0.00000       1.45223
H                       -0.91124      -0.00000      1.45223
