6
H2CCCl2
C                       0.96567       0.54675       0.51728
C                       1.19915       1.74109       1.04434
Cl                       2.74059       2.51956       0.94928
Cl                       -0.01318      2.64612       1.88234
H                       1.75202       0.01775       0.00296
H                       -0.01165      0.09883       0.60050
