6
HCCCCH
C                       2.25045       0.03759       0.13288
C                       3.63145       0.06064       0.08240
C                       4.83716       0.08076       0.03828
C                       1.04473       0.01746       0.17693
H                       5.89833       0.09852       -0.00052
H                       -0.01643      -0.00027      0.21573
