6
HCCCHO
O                       0.94927       -0.00691      -0.02685
C                       2.15256       -0.06536      -0.06159
C                       2.88812       -1.14760      -0.70498
C                       3.54134       -2.01861      -1.22279
H                       2.78238       0.70792       0.39812
H                       4.10153       -2.79445      -1.68402
