13
Isoprene
C                       1.78517       2.19330       1.41307
C                       3.24918       2.13938       1.54038
C                       3.93923       0.81796       1.33874
C                       3.93175       3.25469       1.82991
C                       0.99595       1.15233       1.12877
H                       1.33580       3.16789       1.56718
H                       3.74127       0.42363       0.34031
H                       3.58114       0.07809       2.05690
H                       5.01568       0.92256       1.46026
H                       5.00843       3.24882       1.93009
H                       3.42445       4.19966       1.97302
H                       1.39243       0.15966       0.96597
H                       -0.07530      1.27171       1.05200
