10
Methoxyethene
O                       1.90204       1.16793       0.89485
C                       2.22659       2.45550       0.63531
C                       1.46001       3.53956       0.76728
C                       0.58546       0.95374       1.36374
H                       3.24639       2.52224       0.28383
H                       0.43992       3.51108       1.11501
H                       1.88152       4.49890       0.51331
H                       0.41461       1.48168       2.30442
H                       -0.15048      1.28661       0.62865
H                       0.48462       -0.11555      1.52220
