6
N2H4
N                       1.84949       0.96930       0.02945
N                       0.48138       0.93036       0.46456
H                       2.39206       1.31011       0.80937
H                       2.19149       0.04041       -0.18411
H                       -0.08875      1.02163       -0.36336
H                       0.25572       0.03519       0.88069
