10
Pyrazine
C                       0.99055       1.04560       1.82344
C                       0.96717       0.33063       0.62919
N                       2.12882       1.43534       2.39767
N                       2.08151       -0.01068      -0.01815
C                       3.24318       1.09401       1.75034
C                       3.21979       0.37905       0.55610
H                       0.06962       1.30864       2.32620
H                       0.02774       0.02766       0.18676
H                       4.18260       1.39702       2.19275
H                       4.14071       0.11604       0.05331
