10
Pyrimidine
C                       0.98553       1.83752       0.18301
C                       2.17420       1.12083       0.17313
C                       1.09496       3.21993       0.12270
N                       3.36683       1.71536       0.10935
N                       2.27369       3.84153       0.05829
C                       3.34423       3.04716       0.05546
H                       0.02651       1.34569       0.23491
H                       2.17603       0.03927       0.21745
H                       0.21594       3.85163       0.12590
H                       4.30558       3.54018       0.00350
