7
SF6
S                        0.00000       -0.00000      -0.00000
F                        0.00000       0.00000       1.56281
F                        0.00000       1.56281       0.00000
F                        1.56281       -0.00000      -0.00000
F                        0.00000       -1.56281      0.00000
F                        -1.56281      -0.00000      -0.00000
F                        0.00000       0.00000       -1.56281
