8
Si2H6
Si                       2.58548       2.90879       1.20739
Si                       1.48264       0.83164       1.26470
H                       2.20092       3.66391       -0.01180
H                       4.05692       2.71074       1.19740
H                       2.22482       3.71798       2.39886
H                       1.86787       0.07599       2.48333
H                       1.84346       0.02221       0.07343
H                       0.01118       1.02953       1.27469
