5
SiF4
Si                       1.28030       1.36986       1.02888
F                        0.01177       1.42028       1.94531
F                        1.30672       0.01277       0.24839
F                        2.56749       1.48896       1.91235
F                        1.23521       2.55743       0.00947
