12
Vinyl_acetate
O                       2.13389       2.83427       0.84283
C                       1.08460       2.03488       0.51216
C                       2.23123       4.05195       0.19672
C                       1.13786       0.76276       1.30708
O                       0.25068       2.32488       -0.29879
C                       3.23506       4.87122       0.47806
H                       1.44860       4.24984       -0.51734
H                       1.10657       0.99598       2.37016
H                       2.07673       0.24824       1.10896
H                       0.29847       0.13178       1.03562
H                       3.30194       5.81837       -0.03265
H                       3.98866       4.61354       1.20699
