6
Z-CHF=CHF
C                       0.50837       0.86958       0.00000
C                       1.83203       0.86958       0.00000
F                        2.55238       -0.25180      0.00000
F                        -0.21198      -0.25180      0.00000
H                       -0.06715      1.78052       0.00000
H                       2.40755       1.78052       0.00000
