21

 H   1.039230  -0.000000  -0.000000 
 H  -0.346410  -0.253590   0.946410 
 H  -0.346410   0.946410  -0.253590 
 H  -0.346410  -0.692820  -0.692820 
 H  11.039230  -0.000000  -0.000000 
 H   9.653590  -0.253590   0.946410 
 H   9.653590   0.946410  -0.253590 
 H   9.653590  -0.692820  -0.692820 
 H   7.401924   0.000000   0.000000 
 H  10.866025  -2.366025   0.633975 
 H  10.866025   0.633975  -2.366025 
 H  10.866025   1.732051   1.732051 
 H   5.000000   0.000000   0.000000 
 H   1.080800  -0.000000  -0.000000 
 H  -0.360267  -0.978564   0.244974 
 H  -0.360267   0.701436   0.724974 
 H  -0.360267   0.277128  -0.969948 
 H   0.000000   0.000000   0.000000 
 H  -0.692820   1.385640   1.385640 
 H   2.500000   0.000000   0.500000 
 H   2.500000   0.000000  -0.500000 
