30

 H   1.039230  -0.000000  -0.000000 
 H  -0.346410  -0.253590   0.946410 
 H  -0.346410   0.946410  -0.253590 
 H  -0.346410  -0.692820  -0.692820 
 H  11.039230  -0.000000  -0.000000 
 H   9.653590  -0.253590   0.946410 
 H   9.653590   0.946410  -0.253590 
 H   9.653590  -0.692820  -0.692820 
 H   7.401924   0.000000   0.000000 
 H  10.866025  -2.366025   0.633975 
 H  10.866025   0.633975  -2.366025 
 H  10.866025   1.732051   1.732051 
 H   5.000000   0.000000   0.000000 
 H   1.039230  -0.000000  -0.000000 
 H  -0.346410  -0.946410   0.253590 
 H  -0.346410   0.692820   0.692820 
 H  -0.346410   0.253590  -0.946410 
 H   0.000000   0.000000   0.000000 
 H  -0.692820   1.385640   1.385640 
 H   2.500000   0.000000   0.500000 
 H   2.500000   0.000000  -0.500000 
 H   2.500000   0.500000   0.000000 
 H   2.500000  -0.500000   0.000000 
 H   2.500000   1.300000   0.000000 
 H   2.500000  -0.650000  -1.125833 
 H   2.500000  -0.650000   1.125833 
 H   0.000000  10.000000   0.173205 
 H  -0.115470   9.884530  -0.057735 
 H  -0.042265  10.157735  -0.057735 
 H   0.157735   9.957735  -0.057735 
