73			
			
H	1.2147984861	0.727165084	-0.0502047351
H	1.2206175527	0.0077054493	0.2579087652
H	0.5847703074	1.0462290414	0.0620275293
H	1.272387589	0.0969491627	2.5628589236
H	1.8375740187	1.0435064919	0.0595789523
H	1.2181536471	-0.7305509596	-0.0529140573
H	0.5778720902	-1.0458289668	0.0631089013
H	1.8343166446	-1.050105111	-0.0182600717
H	2.8460469658	-1.0179866413	-2.4580539605
H	0.0074164286	1.3929637058	-0.0651279939
H	-0.5540366654	0.9480623326	1.6571842953
H	-0.5972106877	1.0427292626	0.3181651851
H	0.0083182063	-1.3952322538	-0.0582162192
H	-0.4627518559	-0.9751419647	1.5612085542
H	-0.5833954567	-1.0384789309	0.3002600733
H	3.6387813657	0.7195976265	-0.0490600149
H	3.6380318601	0.0019327752	0.0096846512
H	2.8918470053	0.9816850902	2.4812545926
H	3.0272298612	1.0511032526	0.2274229219
H	4.2750524989	1.0701516856	0.0209233433
H	3.6400639449	-0.7204330467	0.0406771462
H	3.0246290851	-1.0494965333	-0.1509961698
H	4.2795071155	-1.0747518291	-0.0104722538
H	2.4356985045	1.3880697577	-0.0479207507
H	2.4354615595	-1.3867267224	0.040596051
H	4.8512060273	1.4030714735	-0.018107186
H	5.4367689669	1.014190733	0.6877908164
H	5.4607753831	1.0389420599	-0.4345862126
H	4.8470114574	-1.40367211	-0.0001811122
H	5.4546139243	-1.0229646162	0.5551988484
H	5.4497028356	-1.0295644485	-0.5428377367
H	6.0726470658	0.6863612617	-0.0171251473
H	6.064383509	-0.0014226357	0.0050721402
H	6.0758344569	-0.6837440125	-0.0016361109
H	-1.220895802	0.7223747332	-0.0601954086
H	-1.1882377616	-0.0001331518	0.0771237643
H	-1.8323418676	1.0565305599	0.0516026553
H	-1.2232594036	-0.7247160232	-0.0594489454
H	-1.8335828357	-1.0489720765	0.0427344771
H	-3.6473490395	0.7196403561	-0.0674960083
H	-3.6133599686	0.0029454243	0.113233456
H	-3.0262163993	0.8789850851	1.3556571473
H	-3.0368136313	1.0425311808	0.3301688996
H	-4.25730457	1.077819492	0.0300978388
H	-3.6458969332	-0.7189339234	-0.0729732295
H	-3.0106331513	-0.9257897995	1.4096519351
H	-3.0245406124	-1.0544556557	0.3397982481
H	-4.2579666302	-1.0762820436	0.0346210361
H	-2.4274590846	1.3948790601	-0.0636431789
H	-2.4282013189	-1.3940652352	-0.0645132364
H	-4.8494942724	1.4062861904	-0.0018666577
H	-5.4268076611	0.9998033499	0.5445092772
H	-5.4676412148	1.0598078663	-0.519380042
H	-4.8495793673	-1.406019173	-0.0032181438
H	-5.4195806788	-0.9978428219	0.5677349443
H	-5.4720410383	-1.0642365229	-0.5253892733
H	-6.0766877588	0.6841002293	-0.0016400934
H	-6.0714628379	0.00019845	0.0231383755
H	-6.0762645595	-0.6847932959	-0.0024650719
H	-0.0110052679	2.2493006917	0.0253275397
H	-0.0100916481	-2.2659894532	0.1380567786
H	2.4457375441	2.2587111399	0.114428397
H	2.437290782	-2.2675991838	-0.1473078151
H	4.8943020988	2.2510853432	0.001339647
H	4.8773270158	-2.2480679873	-0.0025929257
H	6.7935437844	1.1146161667	-0.0113090267
H	6.7878679491	-1.1169915783	-0.00273352
H	-2.4795188218	2.2356460905	0.0036111087
H	-2.514413572	-2.2314747042	0.0616419426
H	-4.8665753314	2.2367565275	-0.0447579498
H	-4.8745949312	-2.2339573382	-0.047136051
H	-6.7977484176	1.1025870336	-0.0373000828
H	-6.7880932255	-1.10859026	-0.0454408929

